FoamFile
{
    version     2.0;
    format      ascii;
    class       volScalarField;
    location    "A";
    object      theta;
}

dimensions      [1 -3 0 0 0 0 0];

internalField   uniform 100.0;

boundaryField
{
    left
    {
        type            empty;
    }
    right 
    {
        type            empty;
    }
    top
    {
        type            empty;
    }
    bottom
    {
        type             empty;
    }
    front
    {
        type            empty;
    }
    back
    {
        type            empty;
    }
}
