FoamFile
{
    version     2.0;
    format      ascii;
    class       volVectorField;
    location    "U";
    object      theta;
}

dimensions		[0 1 -1 0 0 0 0];

internalField	uniform (0.0 0.0 0.0);

boundaryField
{
    left
    {
        type            empty;
    }
    right 
    {
        type            empty;
    }
    top
    {
        type            empty;
    }
    bottom
    {
        type             empty;
    }
    front
    {
        type            empty;
    }
    back
    {
        type            empty;
    }
}
