FoamFile
{
  version     2.0;
  format      ascii;
  class       dictionary;
  location    "constant";
  object      transportProperties;
}

phase.theta
{
    rho	rho [1 -3 0 0 0 0 0]	1e3;
    mu	mu [1 -1 -1 0 0 0 0]	1e-3;
}


thetamin thetamin [0 0 0 0 0 0 0] 0.019852; // = 0.7*0.02836
thetamax thetamax [0 0 0 0 0 0 0] 0.7;
rs rs [1 -3 0 0 0 0 0] 1611.11;

tau tau [0 0 0 0 0 0 0] 5.29;
alphaT alphaT [0 1 0 0 0 0 0] 3e-5;
alphaL $alphaT;

unsaturatedFlowModel LETd;

LETCoeffs
{
  L L [0 0 0 0 0 0 0] 0.004569;
  E	E [0 0 0 0 0 0 0] 12930;
  T	T [0 0 0 0 0 0 0] 1.505;
  Dwt Dwt [0 2 -1 0 0 0 0] 4.660e-4;
}

species
(
    A
    B
    C
);

Dm diffusivity [0 2 -1 0 0 0 0 ] 1e-9;