FoamFile
{
    version     2.0;
    format      ascii;
    class       dictionary;
    object      blockMeshDict;
}

scale 1e-3;

gap 0.43;
gap1 0.5;
w 6;
wtot 17;
l1 25;
l11 29;
l2 31.5;
l3 42.574;
l4 53.648;
l5 85;


xgap1 #calc "($wtot-$gap)*0.5";
xgap2 #calc "($wtot+$gap)*0.5";
xg1 #calc "($wtot-$gap1)*0.5";
xg2 #calc "($wtot+$gap1)*0.5";
w1 #calc "$wtot-$w";

h 0.18;

nx1 100;
nx2 100;
ny1 100;
ny2 100

scale   0.001;

vertices
(
 (0      0    0) //0
 (0      $l2  0)//1
 ($xgap1 $l3  0)//2
 (0      $l4  0)//3
 (0      $l5  0)//4
 ($wtot  $l5  0)//5
 ($wtot  $l4  0)//6
 ($xgap2 $l3  0)//7
 ($wtot  $l2  0)//8
 ($wtot  0    0)//9
 ($w1    0    0)//10
 ($w1    $l1  0) //11
 ($xg2   $l11 0) //12
 ($xg1   $l11 0) //13
 ($w     $l1  0) //14
 ($w     0    0) //15
 (0      0    $h) //16
 (0      $l2  $h)//17
 ($xgap1 $l3  $h)//18
 (0      $l4  $h)//19
 (0      $l5  $h)//20
 ($wtot  $l5  $h)//21
 ($wtot  $l4  $h)//22
 ($xgap2 $l3  $h)//23
 ($wtot  $l2  $h)//24
 ($wtot  0    $h)//25
 ($w1    0    $h)//26
 ($w1    $l1  $h) //27
 ($xg2   $l11 $h) //28
 ($xg1   $l11 $h) //29
 ($w     $l1  $h) //30
 ($w     0    $h) //31
 (0    $l1  0) //32
 ($wtot    $l1  0) //33
 (0    $l1  $h) //34
 ($wtot    $l1  $h) //35
);



blocks
(
    hex (0 15 14 32 16 31 30 34)
    ($nx1 $ny1 1)
    simpleGrading (1 1 1)

    hex (1 32 14 13 17 34 30 29)
    ($nx1 $ny1 1)
    simpleGrading (1 1 1)

    hex (1 13 7 2 17 29 23 18)
    ($nx1 $ny1 1)
    simpleGrading (1 1 1)

    hex (12 8 7 13 28 24 23 29)
    ($nx1 $ny1 1)
    simpleGrading (1 1 1)

    hex (3 6 5 4 19 22 21 20)
    ($nx1 $ny1 1)
    simpleGrading (1 1 1)

    hex (2 7 6 3 18 23 22 19)
    ($nx1 $ny1 1)
    simpleGrading (1 1 1)

    hex (11 33 8 12 27 35 24 28)
    ($nx1 $ny1 1)
    simpleGrading (1 1 1)

    hex (33 11 10 9 35 27 26 25)
    ($nx1 $ny1 1)
    simpleGrading (1 1 1)
);

edges
(
);

boundary
(
    inlet1
    {
        type patch;
        faces
        (
            (0 15 31 16)
        );
    }
    inlet2
    {
        type patch;
        faces
        (
            (10 9 26 25)
        );
    }
    outlet
    {
        type patch;
        faces
        (
            (4 5 20 21)
        );
    }
    frontAndBack
    {
        type empty;
        faces
        (
	      (0 15 14 32)
	      (16 31 30 34)
	      (1 32 14 13)
	      (17 34 30 29)
	      (1 13 7 2)
	      (17 29 23 18)
	      (12 8 7 13)
	      (28 24 23 29)
	      (3 6 5 4)
	      (19 22 21 20)
	      (2 7 6 3 )
	      (18 23 22 19)
	      (11 33 8 12)
	      (27 35 24 28)
	      (33 11 10 9)
	      (35 27 26 25)
        );
    }
    
);
