FoamFile
{
  version     2.0;
  format      ascii;
  class       dictionary;
  location    "constant";
  object      transportProperties;
}

thetamin thetamin [0 0 0 0 0 0 0] 0.019852; // = 0.7*0.02836
thetamax thetamax [0 0 0 0 0 0 0] 0.7;

unsaturatedFlowModel LETd;

LETdCoeffs
{
  L L [0 0 0 0 0 0 0] 0.004569;
  E	E [0 0 0 0 0 0 0] 12930;
  T	T [0 0 0 0 0 0 0] 1.505;
  Dwt Dwt [0 2 -1 0 0 0 0] 4.660e-4;
}
