FoamFile
{
    version     2.0;
    format      ascii;
    class       volScalarField;
    location    "0";
    object      B;
}

dimensions      [0 -3 0 0 1 0 0];

internalField   uniform 0.0;

boundaryField
{
    left
    {
        type            fixedValue;
        value           uniform 1.0;
    }
    right
    {
        type            zeroGradient;
    }
    top
    {
        type            empty;
    }
    bottom
    {
       type             empty;
    }
    front
    {
        type            empty;
    }
    back
    {
        type            empty;
    }
}
