FoamFile
{
    version     2.0;
    format      ascii;
    class       dictionary;
    location    "system";
    object      fvSolution;
}

solvers
{
    theta
    {
        solver          PCG;
        preconditioner  DIC;
        tolerance       1e-12;
        relTol          0;
    }

    C
    {
        solver          PBiCG;
        preconditioner  DILU;
        tolerance       1e-12;
        relTol          0;
    }
}

Picard
{
    tolerance 1e-3;
}
