/*--------------------------------*- C++ -*----------------------------------*\
  =========                 |
  \\      /  F ield         | OpenFOAM: The Open Source CFD Toolbox
   \\    /   O peration     | Website:  https://openfoam.org
    \\  /    A nd           | Version:  7
     \\/     M anipulation  |
\*---------------------------------------------------------------------------*/
FoamFile
{
    version     2.0;
    format      ascii;
    class       volVectorField;
    location    "0";
    object      Utheta;
}
// * * * * * * * * * * * * * * * * * * * * * * * * * * * * * * * * * * * * * //

dimensions		[0 1 -1 0 0 0 0];

internalField	uniform (0.0 0.0 0.0);

boundaryField
{
    frontAndBack
    {
        type            empty;
    }
    walls
    {
        type            zeroGradient;
    }
    inletU
    {
      type            zeroGradient;
    }
    inletD
    {
    type            zeroGradient;
    }
    outletD
    {
      type            zeroGradient;
    }
    outletU
    {
      type            zeroGradient;
    }
}


// ************************************************************************* //
