FoamFile
{
    version     2.0;
    format      ascii;
    class       volScalarField;
    location    "0";
    object      theta;
}

dimensions      [0 0 0 0 0 0 0];

internalField   uniform 0.025;

boundaryField
{
    inlet1
    {
        type            fixedValue;
        value           uniform 0.6999999; //= 0.7 - 1e-7
    }
    inlet2
    {
        type            fixedValue;
        value           uniform 0.6999999; //= 0.7 - 1e-7
    }
    outlet
    {
        type            zeroGradient;
    }
    defaultFaces
    {
        type            empty;
    }
    frontAndBack
    {
        type            empty;
    }
}
