FoamFile
{
    version     2.0;
    format      ascii;
    class       dictionary;
    location    "system";
    object      fvSchemes;
}

ddtSchemes
{
    default         Euler;
}

gradSchemes
{
    default         Gauss linear;
}

divSchemes
{
    default         none;
    div(phi,C)      Gauss vanLeer;
}

laplacianSchemes
{
    default                 none;
    laplacian(Deff,C)       Gauss linear corrected;
}

interpolationSchemes
{
    default		linear;
}

snGradSchemes
{
    default         corrected;
}
