FoamFile
{
  version     2.0;
  format      ascii;
  class       dictionary;
  location    "constant";
  object      transportProperties;
}

thetamin	thetamin [0 0 0 0 0 0 0]	0.004943;
thetamax  thetamax [0 0 0 0 0 0 0]	0.7;

Ks Ks [0 1 -1 0 0 0 0] 2.079e-6;

unsaturatedFlowModel VanGenuchten;

VanGenuchtenCoeffs
{	
	n n [0 0 0 0 0 0 0] 8.093;
	l	l [0 0 0 0 0 0 0] 2.344;
}
