FoamFile
{
  version     2.0;
  format      ascii;
  class       dictionary;
  location    "constant";
  object      transportProperties;
}

eps 0.7;

tau tau [0 0 0 0 0 0 0] 5.29;
alphaT alphaT [0 1 0 0 0 0 0] 5e-5;
alphaL $alphaT;

species
(
    "ampholyte.TARTRAZINE"
);

ampholyte.TARTRAZINE
{
    Dm diffusivity [0 2 -1 0 0 0 0 ] 1.4476e-9;
}
