FoamFile
{
  version     2.0;
  format      ascii;
  class       dictionary;
  location    "constant";
  object      transportProperties;
}
	
phase.theta
{
    rho	rho [1 -3 0 0 0 0 0]	1e3;
    mu	mu [1 -1 -1 0 0 0 0]	1e-3;
}


thetamin thetamin [0 0 0 0 0 0 0] 0.019852; // = 0.7*0.02836
thetamax thetamax [0 0 0 0 0 0 0] 0.7;

tau tau [0 0 0 0 0 0 0] 5.29;
alphaT alphaT [0 1 0 0 0 0 0] 5e-5;
alphaL $alphaT;

unsaturatedFlowModel LETd;

LETCoeffs
{
  L L [0 0 0 0 0 0 0] 0.004569;
  E	E [0 0 0 0 0 0 0] 12930;
  T	T [0 0 0 0 0 0 0] 1.505;
  Dwt Dwt [0 2 -1 0 0 0 0] 4.660e-4;
}

species
(
    "ampholyte.TARTRAZINE"
);

ampholyte.TARTRAZINE
{
    Dm diffusivity [0 2 -1 0 0 0 0 ] 1.4476e-9;
}
