FoamFile
{
  version     2.0;
  format      ascii;
  class       dictionary;
  location    "constant";
  object      transportProperties;
}

eps eps [0 0 0 0 0 0 0] 0.7;
rs rs [1 -3 0 0 0 0 0] 1611;
tau tau [0 0 0 0 0 0 0] 1.96;
alphaL alphaL [0 1 0 0 0 0 0] 30e-6;
alphaT $alphaL;

species
(
  A
  B
);

A
{
    Kd Kd [-1 3 0 0 0 0 0] 0.0;
    Dm Dm [0 2 -1 0 0 0 0] 1e-9;
}

B
{
    Kd Kd [-1 3 0 0 0 0 0] 1.448e-3;
    Dm Dm [0 2 -1 0 0 0 0] 1e-9;
}
