FoamFile
{
  version     2.0;
  format      ascii;
  class       dictionary;
  location    "constant";
  object      transportProperties;
}

thetamin thetamin [0 0 0 0 0 0 0] 0.019852; // = 0.7*0.02836
thetamax thetamax [0 0 0 0 0 0 0] 0.7;

unsaturatedFlowModel LETd;

LETCoeffs
{
  L L [0 0 0 0 0 0 0] 0.004569;
  E	E [0 0 0 0 0 0 0] 12930;
  T	T [0 0 0 0 0 0 0] 1.505;
  Dwt Dwt [0 2 -1 0 0 0 0] 4.660e-4;
}

species
(
    Fe
    SCN
    FeSCN
);

tau tau [0 0 0 0 0 0 0] 5.29;
alphaT alphaT [0 1 0 0 0 0 0] 5e-5;
alphaL $alphaT;

Fe
{
    Dm diffusivity [0 2 -1 0 0 0 0 ] 1e-9;
}

SCN
{
    Dm diffusivity [0 2 -1 0 0 0 0 ] 1e-9;
}

FeSCN
{
    Dm diffusivity [0 2 -1 0 0 0 0 ] 1e-9;
}

reactions
{
    IronIIIThiocyanateReaction
    {
        reaction "Fe + SCN = FeSCN";
        kf kf [0 3 -1 0 -1 0 0] 89e-3;
        kr kr [0 0 -1 0 0 0 0] 0.72;
    }
}
