FoamFile
{
    version     2.0;
    format      ascii;
    class       volScalarField;
    location    "0";
    object      C;
}

dimensions      [1 -3 0 0 0 0 0];

internalField   uniform 1.0;

boundaryField
{
    left
    {
        type            fixedValue;
        value           uniform 2.0;
    }
    right 
    {
        type            zeroGradient;
    }
    top
    {
        type            empty;
    }
    bottom
    {
       type             empty;
    }
    front
    {
        type            empty;
    }
    back
    {
        type            empty;
    }
}
